/*--------------------------------*- C++ -*----------------------------------*\
| =========                 |                                                 |
| \\      /  F ield         | OpenFOAM: The Open Source CFD Toolbox           |
|  \\    /   O peration     | Version:  v2106                                 |
|   \\  /    A nd           | Website:  www.openfoam.com                      |
|    \\/     M anipulation  |                                                 |
\*---------------------------------------------------------------------------*/
FoamFile
{
    version     2.0;
    format      ascii;
    class       volScalarField;
    object      p;
}
// * * * * * * * * * * * * * * * * * * * * * * * * * * * * * * * * * * * * * //

// Kinematic pressure: p/rho [m²/s²]
// 0.001 m²/s² corresponds to 1 Pa with density 1000 kg/m³

dimensions      [0 2 -2 0 0 0 0];

internalField   uniform 0;

boundaryField
{
    inlet
    {
        type            fixedValue;
        value           uniform 0.001;
    }
    
    outlet
    {
        type            fixedValue;
        value           uniform 0;
    }
    
    top
    {
        type            symmetryPlane;
    }
    
    bottom
    {
        type            symmetryPlane;
    }
    
    solids
    {
        type            zeroGradient;
    }
    
    frontAndBack
    {
        type            empty;
    }
}

// ************************************************************************* // 