/*--------------------------------*- C++ -*----------------------------------*\
| =========                 |                                                 |
| \\      /  F ield         | OpenFOAM: The Open Source CFD Toolbox           |
|  \\    /   O peration     | Version:  v2106                                 |
|   \\  /    A nd           | Website:  www.openfoam.com                      |
|    \\/     M anipulation  |                                                 |
\*---------------------------------------------------------------------------*/
FoamFile
{
    version     2.0;
    format      ascii;
    class       dictionary;
    object      controlDict;
}
// * * * * * * * * * * * * * * * * * * * * * * * * * * * * * * * * * * * * * //

application     simpleFoam;

startFrom       latestTime;

startTime       0;

stopAt          endTime;

endTime         100;

deltaT          1;

writeControl    timeStep;

writeInterval   2;

purgeWrite      0;

writeFormat     ascii;

writePrecision  8;

writeCompression off;

timeFormat      general;

timePrecision   6;

runTimeModifiable true;

functions
{
    volumeAverageVelocity
    {
        type            volFieldValue;
        libs            ("libfieldFunctionObjects.so");
        writeControl    writeTime;
        log             true;
        writeFields     false;
        regionType      all;
        operation       volAverage;
        fields
        (
            U
        );
    }
    
    pressureDrop
    {
        type            surfaceFieldValue;
        libs            ("libfieldFunctionObjects.so");
        writeControl    writeTime;
        log             true;
        writeFields     false;
        regionType      patch;
        name            frontAndBack;
        operation       average;
        fields
        (
            p
        );
    }
}

// ************************************************************************* // 