/*--------------------------------*- C++ -*----------------------------------*\
  =========                 |
  \\      /  F ield         | OpenFOAM: The Open Source CFD Toolbox
   \\    /   O peration     | Website:  https://openfoam.org
    \\  /    A nd           | Version:  8
     \\/     M anipulation  |
\*---------------------------------------------------------------------------*/
FoamFile
{
    version     2.0;
    format      ascii;
    class       volScalarField;
    location    "constant";
    object      V;
}
// * * * * * * * * * * * * * * * * * * * * * * * * * * * * * * * * * * * * * //

dimensions      [0 3 0 0 0 0 0];

internalField   nonuniform List<scalar> 
1600
(
4e-18
4e-18
4e-18
4e-18
4e-18
4e-18
4e-18
4e-18
4e-18
4e-18
4e-18
4e-18
4e-18
4e-18
4e-18
4e-18
4e-18
4e-18
4e-18
4e-18
4e-18
4e-18
4e-18
4e-18
4e-18
4e-18
4e-18
4e-18
4e-18
4e-18
4e-18
4e-18
4e-18
4e-18
4e-18
4e-18
4e-18
4e-18
4e-18
4e-18
4e-18
4e-18
4e-18
4e-18
4e-18
4e-18
4e-18
4e-18
4e-18
4e-18
4e-18
4e-18
4e-18
4e-18
4e-18
4e-18
4e-18
4e-18
4e-18
4e-18
4e-18
4e-18
4e-18
4e-18
4e-18
4e-18
4e-18
4e-18
4e-18
4e-18
4e-18
4e-18
4e-18
4e-18
4e-18
4e-18
4e-18
4e-18
4e-18
4e-18
4e-18
4e-18
4e-18
4e-18
4e-18
4e-18
4e-18
4e-18
4e-18
4e-18
4e-18
4e-18
4e-18
4e-18
4e-18
4e-18
4e-18
4e-18
4e-18
4e-18
4e-18
4e-18
4e-18
4e-18
4e-18
4e-18
4e-18
4e-18
4e-18
4e-18
4e-18
4e-18
4e-18
4e-18
4e-18
4e-18
4e-18
4e-18
4e-18
4e-18
4e-18
4e-18
4e-18
4e-18
4e-18
4e-18
4e-18
4e-18
4e-18
4e-18
4e-18
4e-18
4e-18
4e-18
4e-18
4e-18
4e-18
4e-18
4e-18
4e-18
4e-18
4e-18
4e-18
4e-18
4e-18
4e-18
4e-18
4e-18
4e-18
4e-18
4e-18
4e-18
4e-18
4e-18
4e-18
4e-18
4e-18
4e-18
4e-18
4e-18
4e-18
4e-18
4e-18
4e-18
4e-18
4e-18
4e-18
4e-18
4e-18
4e-18
4e-18
4e-18
4e-18
4e-18
4e-18
4e-18
4e-18
4e-18
4e-18
4e-18
4e-18
4e-18
4e-18
4e-18
4e-18
4e-18
4e-18
4e-18
4e-18
4e-18
4e-18
4e-18
4e-18
4e-18
4e-18
4e-18
4e-18
4e-18
4e-18
4e-18
4e-18
4e-18
4e-18
4e-18
4e-18
4e-18
4e-18
4e-18
4e-18
4e-18
4e-18
4e-18
4e-18
4e-18
4e-18
4e-18
4e-18
4e-18
4e-18
4e-18
4e-18
4e-18
4e-18
4e-18
4e-18
4e-18
4e-18
4e-18
4e-18
4e-18
4e-18
4e-18
4e-18
4e-18
4e-18
4e-18
4e-18
4e-18
4e-18
4e-18
4e-18
4e-18
4e-18
4e-18
4e-18
4e-18
4e-18
4e-18
4e-18
4e-18
4e-18
4e-18
4e-18
4e-18
4e-18
4e-18
4e-18
4e-18
4e-18
4e-18
4e-18
4e-18
4e-18
4e-18
4e-18
4e-18
4e-18
4e-18
4e-18
4e-18
4e-18
4e-18
4e-18
4e-18
4e-18
4e-18
4e-18
4e-18
4e-18
4e-18
4e-18
4e-18
4e-18
4e-18
4e-18
4e-18
4e-18
4e-18
4e-18
4e-18
4e-18
4e-18
4e-18
4e-18
4e-18
4e-18
4e-18
4e-18
4e-18
4e-18
4e-18
4e-18
4e-18
4e-18
4e-18
4e-18
4e-18
4e-18
4e-18
4e-18
4e-18
4e-18
4e-18
4e-18
4e-18
4e-18
4e-18
4e-18
4e-18
4e-18
4e-18
4e-18
4e-18
4e-18
4e-18
4e-18
4e-18
4e-18
4e-18
4e-18
4e-18
4e-18
4e-18
4e-18
4e-18
4e-18
4e-18
4e-18
4e-18
4e-18
4e-18
4e-18
4e-18
4e-18
4e-18
4e-18
4e-18
4e-18
4e-18
4e-18
4e-18
4e-18
4e-18
4e-18
4e-18
4e-18
4e-18
4e-18
4e-18
4e-18
4e-18
4e-18
4e-18
4e-18
4e-18
4e-18
4e-18
4e-18
4e-18
4e-18
4e-18
4e-18
4e-18
4e-18
4e-18
4e-18
4e-18
4e-18
4e-18
4e-18
4e-18
4e-18
4e-18
4e-18
4e-18
4e-18
4e-18
4e-18
4e-18
4e-18
4e-18
4e-18
4e-18
4e-18
4e-18
4e-18
4e-18
4e-18
4e-18
4e-18
4e-18
4e-18
4e-18
4e-18
4e-18
4e-18
4e-18
4e-18
4e-18
4e-18
4e-18
4e-18
4e-18
4e-18
4e-18
4e-18
4e-18
4e-18
4e-18
4e-18
4e-18
4e-18
4e-18
4e-18
4e-18
4e-18
4e-18
4e-18
4e-18
4e-18
4e-18
4e-18
4e-18
4e-18
4e-18
4e-18
4e-18
4e-18
4e-18
4e-18
4e-18
4e-18
4e-18
4e-18
4e-18
4e-18
4e-18
4e-18
4e-18
4e-18
4e-18
4e-18
4e-18
4e-18
4e-18
4e-18
4e-18
4e-18
4e-18
4e-18
4e-18
4e-18
4e-18
4e-18
4e-18
4e-18
4e-18
4e-18
4e-18
4e-18
4e-18
4e-18
4e-18
4e-18
4e-18
4e-18
4e-18
4e-18
4e-18
4e-18
4e-18
4e-18
4e-18
4e-18
4e-18
4e-18
4e-18
4e-18
4e-18
4e-18
4e-18
4e-18
4e-18
4e-18
4e-18
4e-18
4e-18
4e-18
4e-18
4e-18
4e-18
4e-18
4e-18
4e-18
4e-18
4e-18
4e-18
4e-18
4e-18
4e-18
4e-18
4e-18
4e-18
4e-18
4e-18
4e-18
4e-18
4e-18
4e-18
4e-18
4e-18
4e-18
4e-18
4e-18
4e-18
4e-18
4e-18
4e-18
4e-18
4e-18
4e-18
4e-18
4e-18
4e-18
4e-18
4e-18
4e-18
4e-18
4e-18
4e-18
4e-18
4e-18
4e-18
4e-18
4e-18
4e-18
4e-18
4e-18
4e-18
4e-18
4e-18
4e-18
4e-18
4e-18
4e-18
4e-18
4e-18
4e-18
4e-18
4e-18
4e-18
4e-18
4e-18
4e-18
4e-18
4e-18
4e-18
4e-18
4e-18
4e-18
4e-18
4e-18
4e-18
4e-18
4e-18
4e-18
4e-18
4e-18
4e-18
4e-18
4e-18
4e-18
4e-18
4e-18
4e-18
4e-18
4e-18
4e-18
4e-18
4e-18
4e-18
4e-18
4e-18
4e-18
4e-18
4e-18
4e-18
4e-18
4e-18
4e-18
4e-18
4e-18
4e-18
4e-18
4e-18
4e-18
4e-18
4e-18
4e-18
4e-18
4e-18
4e-18
4e-18
4e-18
4e-18
4e-18
4e-18
4e-18
4e-18
4e-18
4e-18
4e-18
4e-18
4e-18
4e-18
4e-18
4e-18
4e-18
4e-18
4e-18
4e-18
4e-18
4e-18
4e-18
4e-18
4e-18
4e-18
4e-18
4e-18
4e-18
4e-18
4e-18
4e-18
4e-18
4e-18
4e-18
4e-18
4e-18
4e-18
4e-18
4e-18
4e-18
4e-18
4e-18
4e-18
4e-18
4e-18
4e-18
4e-18
4e-18
4e-18
4e-18
4e-18
4e-18
4e-18
4e-18
4e-18
4e-18
4e-18
4e-18
4e-18
4e-18
4e-18
4e-18
4e-18
4e-18
4e-18
4e-18
4e-18
4e-18
4e-18
4e-18
4e-18
4e-18
4e-18
4e-18
4e-18
4e-18
4e-18
4e-18
4e-18
4e-18
4e-18
4e-18
4e-18
4e-18
4e-18
4e-18
4e-18
4e-18
4e-18
4e-18
4e-18
4e-18
4e-18
4e-18
4e-18
4e-18
4e-18
4e-18
4e-18
4e-18
4e-18
4e-18
4e-18
4e-18
4e-18
4e-18
4e-18
4e-18
4e-18
4e-18
4e-18
4e-18
4e-18
4e-18
4e-18
4e-18
4e-18
4e-18
4e-18
4e-18
4e-18
4e-18
4e-18
4e-18
4e-18
4e-18
4e-18
4e-18
4e-18
4e-18
4e-18
4e-18
4e-18
4e-18
4e-18
4e-18
4e-18
4e-18
4e-18
4e-18
4e-18
4e-18
4e-18
4e-18
4e-18
4e-18
4e-18
4e-18
4e-18
4e-18
4e-18
4e-18
4e-18
4e-18
4e-18
4e-18
4e-18
4e-18
4e-18
4e-18
4e-18
4e-18
4e-18
4e-18
4e-18
4e-18
4e-18
4e-18
4e-18
4e-18
4e-18
4e-18
4e-18
4e-18
4e-18
4e-18
4e-18
4e-18
4e-18
4e-18
4e-18
4e-18
4e-18
4e-18
4e-18
4e-18
4e-18
4e-18
4e-18
4e-18
4e-18
4e-18
4e-18
4e-18
4e-18
4e-18
4e-18
4e-18
4e-18
4e-18
4e-18
4e-18
4e-18
4e-18
4e-18
4e-18
4e-18
4e-18
4e-18
4e-18
4e-18
4e-18
4e-18
4e-18
4e-18
4e-18
4e-18
4e-18
4e-18
4e-18
4e-18
4e-18
4e-18
4e-18
4e-18
4e-18
4e-18
4e-18
4e-18
4e-18
4e-18
4e-18
4e-18
4e-18
4e-18
4e-18
4e-18
4e-18
4e-18
4e-18
4e-18
4e-18
4e-18
4e-18
4e-18
4e-18
4e-18
4e-18
4e-18
4e-18
4e-18
4e-18
4e-18
4e-18
4e-18
4e-18
4e-18
4e-18
4e-18
4e-18
4e-18
4e-18
4e-18
4e-18
4e-18
4e-18
4e-18
4e-18
4e-18
4e-18
4e-18
4e-18
4e-18
4e-18
4e-18
4e-18
4e-18
4e-18
4e-18
4e-18
4e-18
4e-18
4e-18
4e-18
4e-18
4e-18
4e-18
4e-18
4e-18
4e-18
4e-18
4e-18
4e-18
4e-18
4e-18
4e-18
4e-18
4e-18
4e-18
4e-18
4e-18
4e-18
4e-18
4e-18
4e-18
4e-18
4e-18
4e-18
4e-18
4e-18
4e-18
4e-18
4e-18
4e-18
4e-18
4e-18
4e-18
4e-18
4e-18
4e-18
4e-18
4e-18
4e-18
4e-18
4e-18
4e-18
4e-18
4e-18
4e-18
4e-18
4e-18
4e-18
4e-18
4e-18
4e-18
4e-18
4e-18
4e-18
4e-18
4e-18
4e-18
4e-18
4e-18
4e-18
4e-18
4e-18
4e-18
4e-18
4e-18
4e-18
4e-18
4e-18
4e-18
4e-18
4e-18
4e-18
4e-18
4e-18
4e-18
4e-18
4e-18
4e-18
4e-18
4e-18
4e-18
4e-18
4e-18
4e-18
4e-18
4e-18
4e-18
4e-18
4e-18
4e-18
4e-18
4e-18
4e-18
4e-18
4e-18
4e-18
4e-18
4e-18
4e-18
4e-18
4e-18
4e-18
4e-18
4e-18
4e-18
4e-18
4e-18
4e-18
4e-18
4e-18
4e-18
4e-18
4e-18
4e-18
4e-18
4e-18
4e-18
4e-18
4e-18
4e-18
4e-18
4e-18
4e-18
4e-18
4e-18
4e-18
4e-18
4e-18
4e-18
4e-18
4e-18
4e-18
4e-18
4e-18
4e-18
4e-18
4e-18
4e-18
4e-18
4e-18
4e-18
4e-18
4e-18
4e-18
4e-18
4e-18
4e-18
4e-18
4e-18
4e-18
4e-18
4e-18
4e-18
4e-18
4e-18
4e-18
4e-18
4e-18
4e-18
4e-18
4e-18
4e-18
4e-18
4e-18
4e-18
4e-18
4e-18
4e-18
4e-18
4e-18
4e-18
4e-18
4e-18
4e-18
4e-18
4e-18
4e-18
4e-18
4e-18
4e-18
4e-18
4e-18
4e-18
4e-18
4e-18
4e-18
4e-18
4e-18
4e-18
4e-18
4e-18
4e-18
4e-18
4e-18
4e-18
4e-18
4e-18
4e-18
4e-18
4e-18
4e-18
4e-18
4e-18
4e-18
4e-18
4e-18
4e-18
4e-18
4e-18
4e-18
4e-18
4e-18
4e-18
4e-18
4e-18
4e-18
4e-18
4e-18
4e-18
4e-18
4e-18
4e-18
4e-18
4e-18
4e-18
4e-18
4e-18
4e-18
4e-18
4e-18
4e-18
4e-18
4e-18
4e-18
4e-18
4e-18
4e-18
4e-18
4e-18
4e-18
4e-18
4e-18
4e-18
4e-18
4e-18
4e-18
4e-18
4e-18
4e-18
4e-18
4e-18
4e-18
4e-18
4e-18
4e-18
4e-18
4e-18
4e-18
4e-18
4e-18
4e-18
4e-18
4e-18
4e-18
4e-18
4e-18
4e-18
4e-18
4e-18
4e-18
4e-18
4e-18
4e-18
4e-18
4e-18
4e-18
4e-18
4e-18
4e-18
4e-18
4e-18
4e-18
4e-18
4e-18
4e-18
4e-18
4e-18
4e-18
4e-18
4e-18
4e-18
4e-18
4e-18
4e-18
4e-18
4e-18
4e-18
4e-18
4e-18
4e-18
4e-18
4e-18
4e-18
4e-18
4e-18
4e-18
4e-18
4e-18
4e-18
4e-18
4e-18
4e-18
4e-18
4e-18
4e-18
4e-18
4e-18
4e-18
4e-18
4e-18
4e-18
4e-18
4e-18
4e-18
4e-18
4e-18
4e-18
4e-18
4e-18
4e-18
4e-18
4e-18
4e-18
4e-18
4e-18
4e-18
4e-18
4e-18
4e-18
4e-18
4e-18
4e-18
4e-18
4e-18
4e-18
4e-18
4e-18
4e-18
4e-18
4e-18
4e-18
4e-18
4e-18
4e-18
4e-18
4e-18
4e-18
4e-18
4e-18
4e-18
4e-18
4e-18
4e-18
4e-18
4e-18
4e-18
4e-18
4e-18
4e-18
4e-18
4e-18
4e-18
4e-18
4e-18
4e-18
4e-18
4e-18
4e-18
4e-18
4e-18
4e-18
4e-18
4e-18
4e-18
4e-18
4e-18
4e-18
4e-18
4e-18
4e-18
4e-18
4e-18
4e-18
4e-18
4e-18
4e-18
4e-18
4e-18
4e-18
4e-18
4e-18
4e-18
4e-18
4e-18
4e-18
4e-18
4e-18
4e-18
4e-18
4e-18
4e-18
4e-18
4e-18
4e-18
4e-18
4e-18
4e-18
4e-18
4e-18
4e-18
4e-18
4e-18
4e-18
4e-18
4e-18
4e-18
4e-18
4e-18
4e-18
4e-18
4e-18
4e-18
4e-18
4e-18
4e-18
4e-18
4e-18
4e-18
4e-18
4e-18
4e-18
4e-18
4e-18
4e-18
4e-18
4e-18
4e-18
4e-18
4e-18
4e-18
4e-18
4e-18
4e-18
4e-18
4e-18
4e-18
4e-18
4e-18
4e-18
4e-18
4e-18
4e-18
4e-18
4e-18
4e-18
4e-18
4e-18
4e-18
4e-18
4e-18
4e-18
4e-18
4e-18
4e-18
4e-18
4e-18
4e-18
4e-18
4e-18
4e-18
4e-18
4e-18
4e-18
4e-18
4e-18
4e-18
4e-18
4e-18
4e-18
4e-18
4e-18
4e-18
4e-18
4e-18
4e-18
4e-18
4e-18
4e-18
4e-18
4e-18
4e-18
4e-18
4e-18
4e-18
4e-18
4e-18
4e-18
4e-18
4e-18
4e-18
4e-18
4e-18
4e-18
4e-18
4e-18
4e-18
4e-18
4e-18
4e-18
4e-18
4e-18
4e-18
4e-18
4e-18
4e-18
4e-18
4e-18
4e-18
4e-18
4e-18
4e-18
4e-18
4e-18
4e-18
4e-18
4e-18
4e-18
4e-18
4e-18
4e-18
4e-18
4e-18
4e-18
4e-18
4e-18
4e-18
4e-18
4e-18
4e-18
4e-18
4e-18
4e-18
4e-18
4e-18
4e-18
4e-18
4e-18
4e-18
4e-18
4e-18
4e-18
4e-18
4e-18
4e-18
4e-18
4e-18
4e-18
4e-18
4e-18
4e-18
4e-18
4e-18
4e-18
4e-18
4e-18
4e-18
4e-18
4e-18
4e-18
4e-18
4e-18
4e-18
4e-18
4e-18
4e-18
4e-18
4e-18
4e-18
4e-18
4e-18
4e-18
4e-18
4e-18
4e-18
4e-18
4e-18
4e-18
4e-18
4e-18
4e-18
4e-18
4e-18
4e-18
4e-18
4e-18
4e-18
4e-18
4e-18
4e-18
4e-18
4e-18
4e-18
4e-18
4e-18
4e-18
4e-18
4e-18
4e-18
4e-18
4e-18
4e-18
4e-18
4e-18
4e-18
4e-18
4e-18
4e-18
4e-18
4e-18
4e-18
4e-18
4e-18
4e-18
4e-18
4e-18
4e-18
4e-18
4e-18
4e-18
4e-18
4e-18
4e-18
4e-18
4e-18
4e-18
4e-18
4e-18
4e-18
4e-18
4e-18
4e-18
4e-18
4e-18
4e-18
4e-18
4e-18
4e-18
4e-18
4e-18
4e-18
4e-18
4e-18
4e-18
4e-18
4e-18
4e-18
4e-18
4e-18
4e-18
4e-18
4e-18
4e-18
4e-18
4e-18
4e-18
4e-18
4e-18
4e-18
4e-18
4e-18
4e-18
4e-18
4e-18
4e-18
4e-18
4e-18
4e-18
4e-18
4e-18
4e-18
4e-18
4e-18
4e-18
4e-18
4e-18
4e-18
4e-18
4e-18
4e-18
4e-18
4e-18
4e-18
4e-18
4e-18
)
;

boundaryField
{
    inlet
    {
        type            calculated;
        value           uniform 0;
    }
    outlet
    {
        type            calculated;
        value           uniform 0;
    }
    top
    {
        type            symmetryPlane;
    }
    bottom
    {
        type            symmetryPlane;
    }
    frontAndBack
    {
        type            empty;
    }
}


// ************************************************************************* //
