/*--------------------------------*- C++ -*----------------------------------*\
| =========                 |                                                 |
| \\      /  F ield         | OpenFOAM: The Open Source CFD Toolbox           |
|  \\    /   O peration     | Version:  v2006                                 |
|   \\  /    A nd           | Website:  www.openfoam.com                      |
|    \\/     M anipulation  |                                                 |
\*---------------------------------------------------------------------------*/
FoamFile
{
    version     2.0;
    format      ascii;
    class       volVectorField;
    object      U;
}
// * * * * * * * * * * * * * * * * * * * * * * * * * * * * * * * * * * * * * //

dimensions      [0 1 -1 0 0 0 0];

internalField   uniform (0 0 0);

boundaryField
{
    inlet
    {
        type            fixedValue;
        value           uniform (0.01 0 0);  // Inlet velocity in x-direction
    }
    
    outlet
    {
        type            zeroGradient;
    }
    
    walls
    {
        type            noSlip;  // No-slip condition on walls
    }
    
    frontAndBack
    {
        type            empty;
    }
    
    "solid.*"  // Boundary patches for solid material
    {
        type            noSlip;
    }
}