/*--------------------------------*- C++ -*----------------------------------*\
  =========                 |
  \\      /  F ield         | OpenFOAM: The Open Source CFD Toolbox
   \\    /   O peration     | Website:  https://openfoam.org
    \\  /    A nd           | Version:  8
     \\/     M anipulation  |
\*---------------------------------------------------------------------------*/
FoamFile
{
    version     2.0;
    format      ascii;
    class       polyBoundaryMesh;
    location    "constant/polyMesh";
    object      boundary;
}
// * * * * * * * * * * * * * * * * * * * * * * * * * * * * * * * * * * * * * //

2
(
    frontAndBack
    {
        type            empty;
        inGroups        List<word> 1(empty);
        nFaces          4129;
        startFace       18682;
    }
    solids
    {
        type            wall;
        inGroups        List<word> 1(wall);
        nFaces          6933;
        startFace       22811;
    }
)

// ************************************************************************* //
